[submodule "TL_AVERAGING"]
	path = TL_AVERAGING
	url = git@github.com:Guille340/TL_AVERAGING.git
[submodule "SPECTRAL_RESPONSE"]
	path = SPECTRAL_RESPONSE
	url = git@github.com:Guille340/SPECTRAL_RESPONSE.git
[submodule "SEAWATER_PROPERTIES"]
	path = SEAWATER_PROPERTIES
	url = git@github.com:Guille340/SEAWATER_PROPERTIES.git
[submodule "IMAGE_SOURCE_MODEL"]
	path = IMAGE_SOURCE_MODEL
	url = git@github.com:Guille340/IMAGE_SOURCE_MODEL.git
[submodule "DIGITAL_FILTERING_BANK"]
	path = DIGITAL_FILTERING_BANK
	url = git@github.com:Guille340/DIGITAL_FILTERING_BANK.git
[submodule "FFT_FILTERING_BANK"]
	path = FFT_FILTERING_BANK
	url = git@github.com:Guille340/FFT_FILTERING_BANK.git
[submodule "ACA-Code"]
	path = ACA-Code
	url = git@github.com:alexanderlerch/ACA-Code.git
[submodule "MicArrayBeamforming"]
	path = MicArrayBeamforming
	url = git@github.com:MiguelBlancoGalindo/MicArrayBeamforming.git
[submodule "Array-Toolbox"]
	path = Array-Toolbox
	url = git@github.com:UKY-Distributed-Audio-Lab/Array-Toolbox.git
[submodule "beamforming"]
	path = beamforming
	url = git@github.com:jorgengrythe/beamforming.git
